reduced_networks/ieee34/59pct/dss/Transformers.dss
! Preserved physical transformers and solved regulator taps
new Transformer.subxf phases=3 windings=2 buses=[sourcebus, 800, ] conns=[delta, wye, ] kvs=[69, 24.9, ] kvas=[25000, 25000, ] taps=[1, 1, ] %rs=[0.0005, 0.0005, ] xhl=0.01 xht=35 xlt=30 %noloadloss=0 %imag=0 ppm_antifloat=1
new Transformer.xfm1 phases=3 windings=2 buses=[832, 888, ] conns=[wye, wye, ] kvs=[24.9, 4.16, ] kvas=[500, 500, ] taps=[1, 1, ] %rs=[0.95, 0.95, ] xhl=4.08 xht=35 xlt=30 %noloadloss=0 %imag=0 ppm_antifloat=1
new Transformer.reg1a phases=1 windings=2 buses=[814.1, 814r.1, ] conns=[wye, wye, ] kvs=[14.376, 14.376, ] kvas=[20000, 20000, ] taps=[1, 1.075, ] %rs=[0.2, 0.2, ] xhl=1 xht=35 xlt=30 %noloadloss=0 %imag=0 ppm_antifloat=1
new Transformer.reg1b phases=1 windings=2 buses=[814.2, 814r.2, ] conns=[wye, wye, ] kvs=[14.376, 14.376, ] kvas=[20000, 20000, ] taps=[1, 1.03125, ] %rs=[0.2, 0.2, ] xhl=1 xht=35 xlt=30 %noloadloss=0 %imag=0 ppm_antifloat=1
new Transformer.reg1c phases=1 windings=2 buses=[814.3, 814r.3, ] conns=[wye, wye, ] kvs=[14.376, 14.376, ] kvas=[20000, 20000, ] taps=[1, 1.03125, ] %rs=[0.2, 0.2, ] xhl=1 xht=35 xlt=30 %noloadloss=0 %imag=0 ppm_antifloat=1
new Transformer.reg2a phases=1 windings=2 buses=[852.1, 852r.1, ] conns=[wye, wye, ] kvs=[14.376, 14.376, ] kvas=[20000, 20000, ] taps=[1, 1.08125, ] %rs=[0.2, 0.2, ] xhl=1 xht=35 xlt=30 %noloadloss=0 %imag=0 ppm_antifloat=1
new Transformer.reg2b phases=1 windings=2 buses=[852.2, 852r.2, ] conns=[wye, wye, ] kvs=[14.376, 14.376, ] kvas=[20000, 20000, ] taps=[1, 1.06875, ] %rs=[0.2, 0.2, ] xhl=1 xht=35 xlt=30 %noloadloss=0 %imag=0 ppm_antifloat=1
new Transformer.reg2c phases=1 windings=2 buses=[852.3, 852r.3, ] conns=[wye, wye, ] kvs=[14.376, 14.376, ] kvas=[20000, 20000, ] taps=[1, 1.075, ] %rs=[0.2, 0.2, ] xhl=1 xht=35 xlt=30 %noloadloss=0 %imag=0 ppm_antifloat=1
